      1 'GENROU' G     6.0000      0.50000       1.0000      0.50000E-01
          5.2760       0.0000       1.4000       1.3500      0.30000
         0.60000      0.20000      0.10000      0.10000      0.43000      /
      1 'SEXS'   G    0.10000       10.000       100.00      0.10000
          0.0000       3.0000      /
      1 'GGOV1' G           1         1
          0.42895E-01    1.0000       0.50000E-01  -0.50000E-01    15.880
           2.0000        0.0000        1.0000        1.0000       0.15000
          0.50000        1.5200       0.11000       0.50000        0.0000
           0.0000        3.0000        2.0000       0.67000        1.0000
           0.0000       0.10000      -0.10000        0.0000       0.10000E-01
           10.000       0.10000        1323.2        0.0000        4.0000
           5.0000        99.000       -99.000       /
      1 'GENCLS' O     3.0000       3.0000      /
      2 'GENROU' G     6.0000      0.50000       1.0000      0.50000E-01
          5.0407       0.0000       1.4000       1.3500      0.30000
         0.60000      0.20000      0.10000      0.10000      0.43000      /
      2 'SEXS'   G    0.10000       10.000       100.00      0.10000
          0.0000       3.0000      /
      2 'GGOV1' G           1         1
          0.41485E-01    1.0000       0.50000E-01  -0.50000E-01    15.880
           2.0000        0.0000        1.0000        1.0000       0.15000
          0.50000        1.5200       0.11000       0.50000        0.0000
           0.0000        3.0000        2.0000       0.67000        1.0000
           0.0000       0.10000      -0.10000        0.0000       0.10000E-01
           10.000       0.10000        1378.3        0.0000        4.0000
           5.0000        99.000       -99.000       /
      2 'GENROU' S     6.0000      0.50000       1.0000      0.50000E-01
          2.7842       0.0000       1.4000       1.3500      0.30000
         0.60000      0.20000      0.10000      0.10000      0.43000      /
      2 'SEXS'   S    0.10000       10.000       100.00      0.10000
          0.0000       3.0000      /
      2 'TGOV1'  S    0.40000E-01  0.50000       1.0000       0.0000
          2.0000       7.0000       0.0000      /
      3 'GENROU' H     6.0000      0.50000       1.0000      0.50000E-01
          2.9515       0.0000       1.4000       1.3500      0.30000
         0.60000      0.20000      0.10000      0.10000      0.43000      /
      3 'SEXS'   H    0.10000       10.000       100.00      0.10000
          0.0000       3.0000      /
      3 'HYGOV'  H    0.40000E-01  0.40000       8.0000      0.50000E-01
         0.50000      0.16700       1.0000       0.0000       2.0000
          1.2000       0.0000      0.80000E-01  /
      3 'GENCLS' O     3.0000       3.0000      /
      4 'GENROU' G     6.0000      0.50000       1.0000      0.50000E-01
          4.9803       0.0000       1.4000       1.3500      0.30000
         0.60000      0.20000      0.10000      0.10000      0.43000      /
      4 'SEXS'   G    0.10000       10.000       100.00      0.10000
          0.0000       3.0000      /
      4 'GGOV1' G           1         1
          0.42000E-01    1.0000       0.50000E-01  -0.50000E-01    15.880
           2.0000        0.0000        1.0000        1.0000       0.15000
          0.50000        1.5200       0.11000       0.50000        0.0000
           0.0000        3.0000        2.0000       0.67000        1.0000
           0.0000       0.10000      -0.10000        0.0000       0.10000E-01
           10.000       0.10000        4931.5        0.0000        4.0000
           5.0000        99.000       -99.000       /
      4 'GENROU' H     6.0000      0.50000       1.0000      0.50000E-01
          2.8045       0.0000       1.4000       1.3500      0.30000
         0.60000      0.20000      0.10000      0.10000      0.43000      /
      4 'SEXS'   H    0.10000       10.000       100.00      0.10000
          0.0000       3.0000      /
      4 'HYGOV'  H    0.40000E-01  0.40000       8.0000      0.50000E-01
         0.50000      0.16700       1.0000       0.0000       2.0000
          1.2000       0.0000      0.80000E-01  /
      4 'GENROU' S     6.0000      0.50000       1.0000      0.50000E-01
          3.2966       0.0000       1.4000       1.3500      0.30000
         0.60000      0.20000      0.10000      0.10000      0.43000      /
      4 'SEXS'   S    0.10000       10.000       100.00      0.10000
          0.0000       3.0000      /
      4 'TGOV1'  S    0.40000E-01  0.50000       1.0000       0.0000
          2.0000       7.0000       0.0000      /
      5 'GENROU' G     6.0000      0.50000       1.0000      0.50000E-01
          5.0262       0.0000       1.4000       1.3500      0.30000
         0.60000      0.20000      0.10000      0.10000      0.43000      /
      5 'SEXS'   G    0.10000       10.000       100.00      0.10000
          0.0000       3.0000      /
      5 'GGOV1' G           1         1
          0.42382E-01    1.0000       0.50000E-01  -0.50000E-01    15.880
           2.0000        0.0000        1.0000        1.0000       0.15000
          0.50000        1.5200       0.11000       0.50000        0.0000
           0.0000        3.0000        2.0000       0.67000        1.0000
           0.0000       0.10000      -0.10000        0.0000       0.10000E-01
           10.000       0.10000        11263.        0.0000        4.0000
           5.0000        99.000       -99.000       /
      5 'GENROU' H     6.0000      0.50000       1.0000      0.50000E-01
          2.2325       0.0000       1.4000       1.3500      0.30000
         0.60000      0.20000      0.10000      0.10000      0.43000      /
      5 'SEXS'   H    0.10000       10.000       100.00      0.10000
          0.0000       3.0000      /
      5 'HYGOV'  H    0.40000E-01  0.40000       8.0000      0.50000E-01
         0.50000      0.16700       1.0000       0.0000       2.0000
          1.2000       0.0000      0.80000E-01  /
      5 'GENROU' S     6.0000      0.50000       1.0000      0.50000E-01
          2.3100       0.0000       1.4000       1.3500      0.30000
         0.60000      0.20000      0.10000      0.10000      0.43000      /
      5 'SEXS'   S    0.10000       10.000       100.00      0.10000
          0.0000       3.0000      /
      5 'TGOV1'  S    0.40000E-01  0.50000       1.0000       0.0000
          2.0000       7.0000       0.0000      /
      6 'GENROU' G     6.0000      0.50000       1.0000      0.50000E-01
          5.1117       0.0000       1.4000       1.3500      0.30000
         0.60000      0.20000      0.10000      0.10000      0.43000      /
      6 'SEXS'   G    0.10000       10.000       100.00      0.10000
          0.0000       3.0000      /
      6 'GGOV1' G           1         1
          0.42152E-01    1.0000       0.50000E-01  -0.50000E-01    15.880
           2.0000        0.0000        1.0000        1.0000       0.15000
          0.50000        1.5200       0.11000       0.50000        0.0000
           0.0000        3.0000        2.0000       0.67000        1.0000
           0.0000       0.10000      -0.10000        0.0000       0.10000E-01
           10.000       0.10000        10385.        0.0000        4.0000
           5.0000        99.000       -99.000       /
      6 'GENROU' H     6.0000      0.50000       1.0000      0.50000E-01
          2.9045       0.0000       1.4000       1.3500      0.30000
         0.60000      0.20000      0.10000      0.10000      0.43000      /
      6 'SEXS'   H    0.10000       10.000       100.00      0.10000
          0.0000       3.0000      /
      6 'HYGOV'  H    0.40000E-01  0.40000       8.0000      0.50000E-01
         0.50000      0.16700       1.0000       0.0000       2.0000
          1.2000       0.0000      0.80000E-01  /
      6 'GENCLS' O     3.0000       3.0000      /
      6 'GENROU' S     6.0000      0.50000       1.0000      0.50000E-01
          2.7937       0.0000       1.4000       1.3500      0.30000
         0.60000      0.20000      0.10000      0.10000      0.43000      /
      6 'SEXS'   S    0.10000       10.000       100.00      0.10000
          0.0000       3.0000      /
      6 'TGOV1'  S    0.40000E-01  0.50000       1.0000       0.0000
          2.0000       7.0000       0.0000      /
      7 'GENROU' G     6.0000      0.50000       1.0000      0.50000E-01
          5.1631       0.0000       1.4000       1.3500      0.30000
         0.60000      0.20000      0.10000      0.10000      0.43000      /
      7 'SEXS'   G    0.10000       10.000       100.00      0.10000
          0.0000       3.0000      /
      7 'GGOV1' G           1         1
          0.42533E-01    1.0000       0.50000E-01  -0.50000E-01    15.880
           2.0000        0.0000        1.0000        1.0000       0.15000
          0.50000        1.5200       0.11000       0.50000        0.0000
           0.0000        3.0000        2.0000       0.67000        1.0000
           0.0000       0.10000      -0.10000        0.0000       0.10000E-01
           10.000       0.10000        27484.        0.0000        4.0000
           5.0000        99.000       -99.000       /
      7 'GENCLS' O     3.0000       3.0000      /
      7 'GENROU' S     6.0000      0.50000       1.0000      0.50000E-01
          2.5772       0.0000       1.4000       1.3500      0.30000
         0.60000      0.20000      0.10000      0.10000      0.43000      /
      7 'SEXS'   S    0.10000       10.000       100.00      0.10000
          0.0000       3.0000      /
      7 'TGOV1'  S    0.40000E-01  0.50000       1.0000       0.0000
          2.0000       7.0000       0.0000      /
      7 'GENROU' S1    6.3400      0.50000E-01  0.82000      0.65700E-01
          2.5772       0.0000       2.0000       1.9000      0.38270
         0.45840      0.27430      0.20720      0.55200E-01  0.34540      /
      7 'SEXS'   S1   0.10000       10.000       100.00      0.10000
          0.0000       3.0000      /
      7 'TGOV1'  S1   0.40000E-01  0.50000       1.0000       0.0000
          2.0000       7.0000       0.0000      /
      8 'GENROU' G     6.0000      0.50000       1.0000      0.50000E-01
          4.8179       0.0000       1.4000       1.3500      0.30000
         0.60000      0.20000      0.10000      0.10000      0.43000      /
      8 'SEXS'   G    0.10000       10.000       100.00      0.10000
          0.0000       3.0000      /
      8 'GGOV1' G           1         1
          0.44408E-01    1.0000       0.50000E-01  -0.50000E-01    15.880
           2.0000        0.0000        1.0000        1.0000       0.15000
          0.50000        1.5200       0.11000       0.50000        0.0000
           0.0000        3.0000        2.0000       0.67000        1.0000
           0.0000       0.10000      -0.10000        0.0000       0.10000E-01
           10.000       0.10000        1457.6        0.0000        4.0000
           5.0000        99.000       -99.000       /
      8 'GENCLS' O     3.0000       3.0000      /
      8 'GENROU' S     6.0000      0.50000       1.0000      0.50000E-01
          2.6293       0.0000       1.4000       1.3500      0.30000
         0.60000      0.20000      0.10000      0.10000      0.43000      /
      8 'SEXS'   S    0.10000       10.000       100.00      0.10000
          0.0000       3.0000      /
      8 'TGOV1'  S    0.42137E-01  0.50000       1.0000       0.0000
          2.0000       7.0000       0.0000      /
      1 'REGCA1' R       1
         0.20000E-01   10.000      0.90000      0.40000       1.2200
          1.2000      0.90000      0.50000      -1.3000      0.20000E-01
          0.0000       100.00      -100.00      0.70000      /
      1 'REECA1' R
          0          0       1       0       0       0
         -99.000          99.000         0.20000E-01      0.0000          0.0000
          1.0000          1.1000         -1.0000          0.0000          0.0000
          0.0000          0.0000         0.50000E-01     0.44000        -0.44000
          1.0500         0.90000          0.0000         0.10000E-01      10.000
          60.000          0.0000         0.20000E-01      99.000         -99.000
          1.0000          0.0000          1.1100         0.20000E-01     -1.0000
          1.0000          2.0000          1.0000          0.0000          0.0000
          0.0000          0.0000         -1.0000          1.0000          2.0000
          1.0000          0.0000          0.0000          0.0000          0.0000      /
      1 'REPCA1' R
             0           0           0    '0 '        0       1       1
         0.20000E-01      7.0000          5.0000          0.0000         0.50000E-01
          0.0000          0.0000          0.0000         0.20000E-01     0.10000
        -0.10000          0.0000          0.0000         0.44000        -0.44000
          1.0000         0.50000E-01     0.25000          0.0000          0.0000
         0.99000        -0.99000          1.0000          0.0000         0.10000
          0.0000          0.0000      /
      2 'REGCA1' R       1
         0.20000E-01   10.000      0.90000      0.40000       1.2200
          1.2000      0.90000      0.50000      -1.3000      0.20000E-01
          0.0000       100.00      -100.00      0.70000      /
      2 'REECA1' R
          0          0       1       0       0       0
         -99.000          99.000         0.20000E-01      0.0000          0.0000
          1.0000          1.1000         -1.0000          0.0000          0.0000
          0.0000          0.0000         0.50000E-01     0.44000        -0.44000
          1.0500         0.90000          0.0000         0.10000E-01      10.000
          60.000          0.0000         0.20000E-01      99.000         -99.000
          1.0000          0.0000          1.1100         0.20000E-01     -1.0000
          1.0000          2.0000          1.0000          0.0000          0.0000
          0.0000          0.0000         -1.0000          1.0000          2.0000
          1.0000          0.0000          0.0000          0.0000          0.0000      /
      2 'REPCA1' R
             0           0           0    '0 '        0       1       1
         0.20000E-01      7.0000          5.0000          0.0000         0.50000E-01
          0.0000          0.0000          0.0000         0.20000E-01     0.10000
        -0.10000          0.0000          0.0000         0.44000        -0.44000
          1.0000         0.50000E-01     0.25000          0.0000          0.0000
         0.99000        -0.99000          1.0000          0.0000         0.10000
          0.0000          0.0000      /
      3 'REGCA1' R       1
         0.20000E-01   10.000      0.90000      0.40000       1.2200
          1.2000      0.90000      0.50000      -1.3000      0.20000E-01
          0.0000       100.00      -100.00      0.70000      /
      3 'REECA1' R
          0          0       1       0       0       0
         -99.000          99.000         0.20000E-01      0.0000          0.0000
          1.0000          1.1000         -1.0000          0.0000          0.0000
          0.0000          0.0000         0.50000E-01     0.44000        -0.44000
          1.0500         0.90000          0.0000         0.10000E-01      10.000
          60.000          0.0000         0.20000E-01      99.000         -99.000
          1.0000          0.0000          1.1100         0.20000E-01     -1.0000
          1.0000          2.0000          1.0000          0.0000          0.0000
          0.0000          0.0000         -1.0000          1.0000          2.0000
          1.0000          0.0000          0.0000          0.0000          0.0000      /
      3 'REPCA1' R
             0           0           0    '0 '        0       1       1
         0.20000E-01      7.0000          5.0000          0.0000         0.50000E-01
          0.0000          0.0000          0.0000         0.20000E-01     0.10000
        -0.10000          0.0000          0.0000         0.44000        -0.44000
          1.0000         0.50000E-01     0.25000          0.0000          0.0000
         0.99000        -0.99000          1.0000          0.0000         0.10000
          0.0000          0.0000      /
      4 'REGCA1' R       1
         0.20000E-01   10.000      0.90000      0.40000       1.2200
          1.2000      0.90000      0.50000      -1.3000      0.20000E-01
          0.0000       100.00      -100.00      0.70000      /
      4 'REECA1' R
          0          0       1       0       0       0
         -99.000          99.000         0.20000E-01      0.0000          0.0000
          1.0000          1.1000         -1.0000          0.0000          0.0000
          0.0000          0.0000         0.50000E-01     0.44000        -0.44000
          1.0500         0.90000          0.0000         0.10000E-01      10.000
          60.000          0.0000         0.20000E-01      99.000         -99.000
          1.0000          0.0000          1.1100         0.20000E-01     -1.0000
          1.0000          2.0000          1.0000          0.0000          0.0000
          0.0000          0.0000         -1.0000          1.0000          2.0000
          1.0000          0.0000          0.0000          0.0000          0.0000      /
      4 'REPCA1' R
             0           0           0    '0 '        0       1       1
         0.20000E-01      7.0000          5.0000          0.0000         0.50000E-01
          0.0000          0.0000          0.0000         0.20000E-01     0.10000
        -0.10000          0.0000          0.0000         0.44000        -0.44000
          1.0000         0.50000E-01     0.25000          0.0000          0.0000
         0.99000        -0.99000          1.0000          0.0000         0.10000
          0.0000          0.0000      /
      5 'REGCA1' R       1
         0.20000E-01   10.000      0.90000      0.40000       1.2200
          1.2000      0.90000      0.50000      -1.3000      0.20000E-01
          0.0000       100.00      -100.00      0.70000      /
      5 'REECA1' R
          0          0       1       0       0       0
         -99.000          99.000         0.20000E-01      0.0000          0.0000
          1.0000          1.1000         -1.0000          0.0000          0.0000
          0.0000          0.0000         0.50000E-01     0.44000        -0.44000
          1.0500         0.90000          0.0000         0.10000E-01      10.000
          60.000          0.0000         0.20000E-01      99.000         -99.000
          1.0000          0.0000          1.1100         0.20000E-01     -1.0000
          1.0000          2.0000          1.0000          0.0000          0.0000
          0.0000          0.0000         -1.0000          1.0000          2.0000
          1.0000          0.0000          0.0000          0.0000          0.0000      /
      5 'REPCA1' R
             0           0           0    '0 '        0       1       1
         0.20000E-01      7.0000          5.0000          0.0000         0.50000E-01
          0.0000          0.0000          0.0000         0.20000E-01     0.10000
        -0.10000          0.0000          0.0000         0.44000        -0.44000
          1.0000         0.50000E-01     0.25000          0.0000          0.0000
         0.99000        -0.99000          1.0000          0.0000         0.10000
          0.0000          0.0000      /
